tests/fuzzer/corpus_json/24_columnar_21_random_017.json
{
  "version": "1.0",
  "type": "input",
  "is_batch": false,
  "attributes": {
    "node": [
      "id",
      "u_rated"
    ],
    "source": [
      "id",
      "node",
      "status",
      "u_ref",
      "u_ref_angle",
      "sk",
      "rx_ratio",
      "z01_ratio"
    ],
    "line": [
      "id",
      "from_node",
      "to_node",
      "from_status",
      "to_status",
      "r1",
      "x1",
      "c1",
      "tan1",
      "r0",
      "x0",
      "c0",
      "tan0",
      "i_n"
    ],
    "sym_load": [
      "id",
      "node",
      "status",
      "type",
      "p_specified",
      "q_specified"
    ]
  },
  "data": {
    "node": [
      [
        0,
        110000.0
      ],
      [
        1,
        110000.0
      ],
      [
        2,
        110000.0
      ],
      [
        3,
        110000.0
      ],
      [
        4,
        110000.0
      ],
      [
        5,
        110000.0
      ],
      [
        6,
        110000.0
      ],
      [
        7,
        110000.0
      ],
      [
        8,
        110000.0
      ],
      [
        9,
        110000.0
      ]
    ],
    "source": [
      [
        10,
        0,
        1,
        1.0920989548647755,
        0.0,
        806710108.0409672,
        0.14481268888223275,
        1.0
      ]
    ],
    "line": [
      [
        11,
        0,
        1,
        1,
        1,
        3.5210993342170633,
        3.306915286119152,
        1.1016204891721182e-07,
        0.0,
        0.3,
        0.3,
        1e-09,
        0.0,
        36.667411002621535
      ],
      [
        12,
        1,
        2,
        1,
        1,
        1.9208555227214874,
        3.7319759808319217,
        2.5238376751322197e-07,
        0.0,
        0.3,
        0.3,
        1e-09,
        0.0,
        506.5866438623534
      ],
      [
        13,
        2,
        3,
        1,
        1,
        1.5871754527287485,
        4.231639045642121,
        9.451939145048893e-07,
        0.0,
        0.3,
        0.3,
        1e-09,
        0.0,
        407.5750275415628
      ],
      [
        14,
        3,
        4,
        1,
        1,
        4.992235025435105,
        0.3109639562622335,
        8.126090004416156e-07,
        0.0,
        0.3,
        0.3,
        1e-09,
        0.0,
        876.5633371069978
      ],
      [
        15,
        4,
        5,
        1,
        1,
        0.7545774013849005,
        3.5278430779597536,
        5.588918686046748e-07,
        0.0,
        0.3,
        0.3,
        1e-09,
        0.0,
        955.63598363826
      ],
      [
        16,
        5,
        6,
        1,
        1,
        1.0500500474511116,
        2.6998167531006185,
        8.824561068087002e-07,
        0.0,
        0.3,
        0.3,
        1e-09,
        0.0,
        642.3854492491985
      ],
      [
        17,
        6,
        7,
        1,
        1,
        1.5459976497916261,
        0.4093192706737131,
        9.39776047011715e-07,
        0.0,
        0.3,
        0.3,
        1e-09,
        0.0,
        479.3574863953413
      ],
      [
        18,
        7,
        8,
        1,
        1,
        4.981630913911116,
        0.7080357031006768,
        8.12204252248064e-07,
        0.0,
        0.3,
        0.3,
        1e-09,
        0.0,
        815.2443405315978
      ],
      [
        19,
        8,
        9,
        1,
        1,
        4.599875112488201,
        0.089171582191514,
        3.721928415574348e-07,
        0.0,
        0.3,
        0.3,
        1e-09,
        0.0,
        61.1523034267917
      ]
    ],
    "sym_load": [
      [
        20,
        2,
        1,
        1,
        -25034.197300558022,
        5487.498492771063
      ],
      [
        21,
        4,
        1,
        2,
        -57231.348816466074,
        -5028.604637545682
      ],
      [
        22,
        6,
        1,
        0,
        57293.93851084213,
        -6145.049967240877
      ],
      [
        23,
        8,
        1,
        2,
        80344.48195917299,
        -4996.555796479413
      ],
      [
        24,
        9,
        1,
        1,
        -36224.20106719844,
        -3358.5361996124166
      ]
    ]
  }
}
